                                  MODFLOW-2005     
      U.S. GEOLOGICAL SURVEY MODULAR FINITE-DIFFERENCE GROUND-WATER FLOW MODEL
                            VERSION 1.12.00 2/3/2017

 LIST FILE: ReleaseHistory_flow.list
                         UNIT    2

 OPENING ReleaseHistory_flow.dis
 FILE TYPE:DIS   UNIT   11   STATUS:OLD    
 FORMAT:FORMATTED              ACCESS:SEQUENTIAL          

 OPENING ReleaseHistory_flow.lpf
 FILE TYPE:LPF   UNIT   15   STATUS:OLD    
 FORMAT:FORMATTED              ACCESS:SEQUENTIAL          

 OPENING ReleaseHistory_flow.bas
 FILE TYPE:BAS6   UNIT   13   STATUS:OLD    
 FORMAT:FORMATTED              ACCESS:SEQUENTIAL          

 OPENING ReleaseHistory_flow.chd
 FILE TYPE:CHD   UNIT   24   STATUS:OLD    
 FORMAT:FORMATTED              ACCESS:SEQUENTIAL          

 OPENING ReleaseHistory_flow.wel
 FILE TYPE:WEL   UNIT   20   STATUS:OLD    
 FORMAT:FORMATTED              ACCESS:SEQUENTIAL          

 OPENING ReleaseHistory_flow.lmt6
 FILE TYPE:LMT6   UNIT   30   STATUS:OLD    
 FORMAT:FORMATTED              ACCESS:SEQUENTIAL          

 OPENING ReleaseHistory_flow.pcg
 FILE TYPE:PCG   UNIT   27   STATUS:OLD    
 FORMAT:FORMATTED              ACCESS:SEQUENTIAL          

 OPENING ReleaseHistory_flow.oc
 FILE TYPE:OC   UNIT   14   STATUS:OLD    
 FORMAT:FORMATTED              ACCESS:SEQUENTIAL          

 OPENING ReleaseHistory_flow.hds
 FILE TYPE:DATA(BINARY)   UNIT   51   STATUS:REPLACE
 FORMAT:BINARY                 ACCESS:SEQUENTIAL          

 BAS -- BASIC PACKAGE, VERSION 7, 5/2/2005 INPUT READ FROM UNIT   13
 
 MODFLOW was compiled using uniform precision
 Precision of REAL and DOUBLE PRECISION variables:          15

 DISCRETIZATION INPUT DATA READ FROM UNIT   11
 # DIS package for MODFLOW-2005 generated by Flopy 3.9.2
    1 LAYERS        50 ROWS       150 COLUMNS
  101 STRESS PERIOD(S) IN SIMULATION
 MODEL TIME UNIT IS DAYS
 MODEL LENGTH UNIT IS METERS
  Confining bed flag for each layer:
   0

                     DELR =   2.00000    

                     DELC =   2.00000    

 TOP ELEVATION OF LAYER 1 =   10.0000    

   MODEL LAYER BOTTOM EL. =   0.00000     FOR LAYER   1


 STRESS PERIOD     LENGTH       TIME STEPS     MULTIPLIER FOR DELT    SS FLAG
 ----------------------------------------------------------------------------
        1         0.000000          2                    1.000         SS
        2         3.000000          2                    1.000         TR
        3         3.000000          2                    1.000         TR
        4         3.000000          2                    1.000         TR
        5         3.000000          2                    1.000         TR
        6         3.000000          2                    1.000         TR
        7         3.000000          2                    1.000         TR
        8         3.000000          2                    1.000         TR
        9         3.000000          2                    1.000         TR
       10         3.000000          2                    1.000         TR
       11         3.000000          2                    1.000         TR
       12         3.000000          2                    1.000         TR
       13         3.000000          2                    1.000         TR
       14         3.000000          2                    1.000         TR
       15         3.000000          2                    1.000         TR
       16         3.000000          2                    1.000         TR
       17         3.000000          2                    1.000         TR
       18         3.000000          2                    1.000         TR
       19         3.000000          2                    1.000         TR
       20         3.000000          2                    1.000         TR
       21         3.000000          2                    1.000         TR
       22         3.000000          2                    1.000         TR
       23         3.000000          2                    1.000         TR
       24         3.000000          2                    1.000         TR
       25         3.000000          2                    1.000         TR
       26         3.000000          2                    1.000         TR
       27         3.000000          2                    1.000         TR
       28         3.000000          2                    1.000         TR
       29         3.000000          2                    1.000         TR
       30         3.000000          2                    1.000         TR
       31         3.000000          2                    1.000         TR
       32         3.000000          2                    1.000         TR
       33         3.000000          2                    1.000         TR
       34         3.000000          2                    1.000         TR
       35         3.000000          2                    1.000         TR
       36         3.000000          2                    1.000         TR
       37         3.000000          2                    1.000         TR
       38         3.000000          2                    1.000         TR
       39         3.000000          2                    1.000         TR
       40         3.000000          2                    1.000         TR
       41         3.000000          2                    1.000         TR
       42         3.000000          2                    1.000         TR
       43         3.000000          2                    1.000         TR
       44         3.000000          2                    1.000         TR
       45         3.000000          2                    1.000         TR
       46         3.000000          2                    1.000         TR
       47         3.000000          2                    1.000         TR
       48         3.000000          2                    1.000         TR
       49         3.000000          2                    1.000         TR
       50         3.000000          2                    1.000         TR
       51         3.000000          2                    1.000         TR
       52         3.000000          2                    1.000         TR
       53         3.000000          2                    1.000         TR
       54         3.000000          2                    1.000         TR
       55         3.000000          2                    1.000         TR
       56         3.000000          2                    1.000         TR
       57         3.000000          2                    1.000         TR
       58         3.000000          2                    1.000         TR
       59         3.000000          2                    1.000         TR
       60         3.000000          2                    1.000         TR
       61         3.000000          2                    1.000         TR
       62         3.000000          2                    1.000         TR
       63         3.000000          2                    1.000         TR
       64         3.000000          2                    1.000         TR
       65         3.000000          2                    1.000         TR
       66         3.000000          2                    1.000         TR
       67         3.000000          2                    1.000         TR
       68         3.000000          2                    1.000         TR
       69         3.000000          2                    1.000         TR
       70         3.000000          2                    1.000         TR
       71         3.000000          2                    1.000         TR
       72         3.000000          2                    1.000         TR
       73         3.000000          2                    1.000         TR
       74         3.000000          2                    1.000         TR
       75         3.000000          2                    1.000         TR
       76         3.000000          2                    1.000         TR
       77         3.000000          2                    1.000         TR
       78         3.000000          2                    1.000         TR
       79         3.000000          2                    1.000         TR
       80         3.000000          2                    1.000         TR
       81         3.000000          2                    1.000         TR
       82         3.000000          2                    1.000         TR
       83         3.000000          2                    1.000         TR
       84         3.000000          2                    1.000         TR
       85         3.000000          2                    1.000         TR
       86         3.000000          2                    1.000         TR
       87         3.000000          2                    1.000         TR
       88         3.000000          2                    1.000         TR
       89         3.000000          2                    1.000         TR
       90         3.000000          2                    1.000         TR
       91         3.000000          2                    1.000         TR
       92         3.000000          2                    1.000         TR
       93         3.000000          2                    1.000         TR
       94         3.000000          2                    1.000         TR
       95         3.000000          2                    1.000         TR
       96         3.000000          2                    1.000         TR
       97         3.000000          2                    1.000         TR
       98         3.000000          2                    1.000         TR
       99         3.000000          2                    1.000         TR
      100         3.000000          2                    1.000         TR
      101         3.000000          2                    1.000         TR

 COMBINED STEADY-STATE AND TRANSIENT SIMULATION



 
 # BAS6 package for MODFLOW-2005 generated by Flopy 3.9.2                        
 THE FREE FORMAT OPTION HAS BEEN SELECTED



                     BOUNDARY ARRAY FOR LAYER   1
 READING ON UNIT   13 WITH FORMAT: (150I10)            

 AQUIFER HEAD WILL BE SET TO  -999.99     AT ALL NO-FLOW NODES (IBOUND=0).

             INITIAL HEAD =   10.0000     FOR LAYER   1
 # OC package for MODFLOW-2005 generated by Flopy 3.9.2

 OUTPUT CONTROL IS SPECIFIED ONLY AT TIME STEPS FOR WHICH OUTPUT IS DESIRED
 COMPACT CELL-BY-CELL BUDGET FILES WILL BE WRITTEN
 AUXILIARY DATA WILL BE SAVED IN CELL-BY-CELL BUDGET FILES
 HEAD PRINT FORMAT CODE IS   0    DRAWDOWN PRINT FORMAT CODE IS   0
 HEADS WILL BE SAVED ON UNIT   51    DRAWDOWNS WILL BE SAVED ON UNIT    0

 LPF -- LAYER-PROPERTY FLOW PACKAGE, VERSION 7, 5/2/2005
         INPUT READ FROM UNIT   15
 # LPF package for MODFLOW-2005 generated by Flopy 3.9.2
 HEAD AT CELLS THAT CONVERT TO DRY=  -888.00    
 No named parameters

   LAYER FLAGS:
 LAYER       LAYTYP        LAYAVG         CHANI        LAYVKA        LAYWET
 ---------------------------------------------------------------------------
    1             0             0    -1.000E+00             1             0

   INTERPRETATION OF LAYER FLAGS:
                        INTERBLOCK     HORIZONTAL    DATA IN
         LAYER TYPE   TRANSMISSIVITY   ANISOTROPY   ARRAY VKA   WETTABILITY
 LAYER      (LAYTYP)      (LAYAVG)       (CHANI)      (LAYVKA)      (LAYWET)
 ---------------------------------------------------------------------------
    1      CONFINED      HARMONIC      VARIABLE    ANISOTROPY  NON-WETTABLE

 WETTING CAPABILITY IS NOT ACTIVE IN ANY LAYER



              HYD. COND. ALONG ROWS FOR LAYER   1
 READING ON UNIT   15 WITH FORMAT: (150E15.6)          

   HORIZ. ANI. (COL./ROW) =   1.00000     FOR LAYER   1

  HORIZ. TO VERTICAL ANI. =   1.00000     FOR LAYER   1

         SPECIFIC STORAGE =  1.000000E-05 FOR LAYER   1

 WEL -- WELL PACKAGE, VERSION 7, 5/2/2005 INPUT READ FROM UNIT   20
 # WEL package for MODFLOW-2005 generated by Flopy 3.9.2
 No named parameters
 MAXIMUM OF      1 ACTIVE WELLS AT ONE TIME


     0 Well parameters

 CHD -- TIME-VARIANT SPECIFIED-HEAD OPTION, VERSION 7, 5/2/2005
 INPUT READ FROM UNIT   24
 # CHD package for MODFLOW-2005 generated by Flopy 3.9.2
 No named parameters
 MAXIMUM OF    100 TIME-VARIANT SPECIFIED-HEAD CELLS AT ONE TIME


     0 TIME-VARIANT SPECIFIED-HEAD PARAMETERS

 PCG -- CONJUGATE-GRADIENT SOLUTION PACKAGE, VERSION 7, 5/2/2005
 # PCG package for MODFLOW-2005 generated by Flopy 3.9.2
 MAXIMUM OF     20 CALLS OF SOLUTION ROUTINE
 MAXIMUM OF     50 INTERNAL ITERATIONS PER CALL TO SOLUTION ROUTINE
 MATRIX PRECONDITIONING TYPE :    1



                                    SOLUTION BY THE CONJUGATE-GRADIENT METHOD
                                   -------------------------------------------
                    MAXIMUM NUMBER OF CALLS TO PCG ROUTINE =       20
                        MAXIMUM ITERATIONS PER CALL TO PCG =       50
                               MATRIX PRECONDITIONING TYPE =        1
        RELAXATION FACTOR (ONLY USED WITH PRECOND. TYPE 1) =    0.10000E+01
 PARAMETER OF POLYNOMIAL PRECOND. = 2 (2) OR IS CALCULATED :        0
                         HEAD CHANGE CRITERION FOR CLOSURE =    0.10000E-02
                     RESIDUAL CHANGE CRITERION FOR CLOSURE =    0.10000E-02
            PCG HEAD AND RESIDUAL CHANGE PRINTOUT INTERVAL =      999
     PRINTING FROM SOLVER IS LIMITED(1) OR SUPPRESSED (>1) =        3
                            STEADY-STATE DAMPING PARAMETER =    0.10000E+01
                               TRANSIENT DAMPING PARAMETER =    0.10000E+01


 ***Link-MT3DMS Package v7***
 OPENING LINK-MT3DMS OUTPUT FILE: mt3d_link.ftl                                                                                                                                                                                           
 ON UNIT NUMBER:    54
 FILE TYPE: UNFORMATTED
 HEADER OPTION: EXTENDED
 ***Link-MT3DMS Package v7***

1
                            STRESS PERIOD NO.    1, LENGTH =   0.000000    
                            -----------------------------------------------

                              NUMBER OF TIME STEPS =     2

                               MULTIPLIER FOR DELT =     1.000

                            INITIAL TIME STEP SIZE =   0.000000    

 WELL NO.  LAYER   ROW   COL   STRESS RATE         
 --------------------------------------------------
      1      1     28     25       0.000    

      1 WELL 

 CHD NO.   LAYER   ROW   COL    START HEAD        END HEAD         
 ------------------------------------------------------------------
      1      1      1      1       24.00           24.00    
      2      1      2      1       24.00           24.00    
      3      1      3      1       24.00           24.00    
      4      1      4      1       24.00           24.00    
      5      1      5      1       24.00           24.00    
      6      1      6      1       24.00           24.00    
      7      1      7      1       24.00           24.00    
      8      1      8      1       24.00           24.00    
      9      1      9      1       24.00           24.00    
     10      1     10      1       24.00           24.00    
     11      1     11      1       24.00           24.00    
     12      1     12      1       24.00           24.00    
     13      1     13      1       24.00           24.00    
     14      1     14      1       24.00           24.00    
     15      1     15      1       24.00           24.00    
     16      1     16      1       24.00           24.00    
     17      1     17      1       24.00           24.00    
     18      1     18      1       24.00           24.00    
     19      1     19      1       24.00           24.00    
     20      1     20      1       24.00           24.00    
     21      1     21      1       24.00           24.00    
     22      1     22      1       24.00           24.00    
     23      1     23      1       24.00           24.00    
     24      1     24      1       24.00           24.00    
     25      1     25      1       24.00           24.00    
     26      1     26      1       24.00           24.00    
     27      1     27      1       24.00           24.00    
     28      1     28      1       24.00           24.00    
     29      1     29      1       24.00           24.00    
     30      1     30      1       24.00           24.00    
     31      1     31      1       24.00           24.00    
     32      1     32      1       24.00           24.00    
     33      1     33      1       24.00           24.00    
     34      1     34      1       24.00           24.00    
     35      1     35      1       24.00           24.00    
     36      1     36      1       24.00           24.00    
     37      1     37      1       24.00           24.00    
     38      1     38      1       24.00           24.00    
     39      1     39      1       24.00           24.00    
     40      1     40      1       24.00           24.00    
     41      1     41      1       24.00           24.00    
     42      1     42      1       24.00           24.00    
     43      1     43      1       24.00           24.00    
     44      1     44      1       24.00           24.00    
     45      1     45      1       24.00           24.00    
     46      1     46      1       24.00           24.00    
     47      1     47      1       24.00           24.00    
     48      1     48      1       24.00           24.00    
     49      1     49      1       24.00           24.00    
     50      1     50      1       24.00           24.00    
     51      1      1    150       21.00           21.00    
     52      1      2    150       21.00           21.00    
     53      1      3    150       21.00           21.00    
     54      1      4    150       21.00           21.00    
     55      1      5    150       21.00           21.00    
     56      1      6    150       21.00           21.00    
     57      1      7    150       21.00           21.00    
     58      1      8    150       21.00           21.00    
     59      1      9    150       21.00           21.00    
     60      1     10    150       21.00           21.00    
     61      1     11    150       21.00           21.00    
     62      1     12    150       21.00           21.00    
     63      1     13    150       21.00           21.00    
     64      1     14    150       21.00           21.00    
     65      1     15    150       21.00           21.00    
     66      1     16    150       21.00           21.00    
     67      1     17    150       21.00           21.00    
     68      1     18    150       21.00           21.00    
     69      1     19    150       21.00           21.00    
     70      1     20    150       21.00           21.00    
     71      1     21    150       21.00           21.00    
     72      1     22    150       21.00           21.00    
     73      1     23    150       21.00           21.00    
     74      1     24    150       21.00           21.00    
     75      1     25    150       21.00           21.00    
     76      1     26    150       21.00           21.00    
     77      1     27    150       21.00           21.00    
     78      1     28    150       21.00           21.00    
     79      1     29    150       21.00           21.00    
     80      1     30    150       21.00           21.00    
     81      1     31    150       21.00           21.00    
     82      1     32    150       21.00           21.00    
     83      1     33    150       21.00           21.00    
     84      1     34    150       21.00           21.00    
     85      1     35    150       21.00           21.00    
     86      1     36    150       21.00           21.00    
     87      1     37    150       21.00           21.00    
     88      1     38    150       21.00           21.00    
     89      1     39    150       21.00           21.00    
     90      1     40    150       21.00           21.00    
     91      1     41    150       21.00           21.00    
     92      1     42    150       21.00           21.00    
     93      1     43    150       21.00           21.00    
     94      1     44    150       21.00           21.00    
     95      1     45    150       21.00           21.00    
     96      1     46    150       21.00           21.00    
     97      1     47    150       21.00           21.00    
     98      1     48    150       21.00           21.00    
     99      1     49    150       21.00           21.00    
    100      1     50    150       21.00           21.00    


    100 TIME-VARIANT SPECIFIED-HEAD CELLS
 
 SOLVING FOR HEAD 

 OUTPUT CONTROL FOR STRESS PERIOD    1   TIME STEP    1
    SAVE HEAD FOR ALL LAYERS

 SAVING SATURATED THICKNESS AND FLOW TERMS ON UNIT   54 FOR MT3DMS
 BY THE LINK-MT3DMS PACKAGE V7 AT TIME STEP    1, STRESS PERIOD    1


 HEAD WILL BE SAVED ON UNIT   51 AT END OF TIME STEP    1, STRESS PERIOD    1
 
 SOLVING FOR HEAD 

 OUTPUT CONTROL FOR STRESS PERIOD    1   TIME STEP    2
    SAVE HEAD FOR ALL LAYERS

 SAVING SATURATED THICKNESS AND FLOW TERMS ON UNIT   54 FOR MT3DMS
 BY THE LINK-MT3DMS PACKAGE V7 AT TIME STEP    2, STRESS PERIOD    1


 HEAD WILL BE SAVED ON UNIT   51 AT END OF TIME STEP    2, STRESS PERIOD    1
1
  VOLUMETRIC BUDGET FOR ENTIRE MODEL AT END OF TIME STEP    2, STRESS PERIOD   1
  ------------------------------------------------------------------------------

     CUMULATIVE VOLUMES      L**3       RATES FOR THIS TIME STEP      L**3/T
     ------------------                 ------------------------

           IN:                                      IN:
           ---                                      ---
             STORAGE =           0.0000               STORAGE =           0.0000
       CONSTANT HEAD =           0.0000         CONSTANT HEAD =         501.4052
               WELLS =           0.0000                 WELLS =           0.0000

            TOTAL IN =           0.0000              TOTAL IN =         501.4052

          OUT:                                     OUT:
          ----                                     ----
             STORAGE =           0.0000               STORAGE =           0.0000
       CONSTANT HEAD =           0.0000         CONSTANT HEAD =         501.4053
               WELLS =           0.0000                 WELLS =           0.0000

           TOTAL OUT =           0.0000             TOTAL OUT =         501.4053

            IN - OUT =           0.0000              IN - OUT =      -5.3750E-05

 PERCENT DISCREPANCY =           0.00     PERCENT DISCREPANCY =          -0.00






         TIME SUMMARY AT END OF TIME STEP    2 IN STRESS PERIOD    1
                    SECONDS     MINUTES      HOURS       DAYS        YEARS
                    -----------------------------------------------------------
   TIME STEP LENGTH  0.0000      0.0000      0.0000      0.0000      0.0000    
 STRESS PERIOD TIME  0.0000      0.0000      0.0000      0.0000      0.0000    
         TOTAL TIME  0.0000      0.0000      0.0000      0.0000      0.0000    
1
1
                            STRESS PERIOD NO.    2, LENGTH =   3.000000    
                            -----------------------------------------------

                              NUMBER OF TIME STEPS =     2

                               MULTIPLIER FOR DELT =     1.000

                            INITIAL TIME STEP SIZE =   1.500000    

 WELL NO.  LAYER   ROW   COL   STRESS RATE         
 --------------------------------------------------
      1      1     28     25      0.1000E-02

      1 WELL 

 REUSING NON-PARAMETER SPECIFIED-HEAD DATA FROM LAST STRESS PERIOD


    100 TIME-VARIANT SPECIFIED-HEAD CELLS
 
 SOLVING FOR HEAD 

 OUTPUT CONTROL FOR STRESS PERIOD    2   TIME STEP    1
    SAVE HEAD FOR ALL LAYERS

 SAVING SATURATED THICKNESS AND FLOW TERMS ON UNIT   54 FOR MT3DMS
 BY THE LINK-MT3DMS PACKAGE V7 AT TIME STEP    1, STRESS PERIOD    2


 HEAD WILL BE SAVED ON UNIT   51 AT END OF TIME STEP    1, STRESS PERIOD    2
 
 SOLVING FOR HEAD 

 OUTPUT CONTROL FOR STRESS PERIOD    2   TIME STEP    2
    SAVE HEAD FOR ALL LAYERS

 SAVING SATURATED THICKNESS AND FLOW TERMS ON UNIT   54 FOR MT3DMS
 BY THE LINK-MT3DMS PACKAGE V7 AT TIME STEP    2, STRESS PERIOD    2


 HEAD WILL BE SAVED ON UNIT   51 AT END OF TIME STEP    2, STRESS PERIOD    2
1
  VOLUMETRIC BUDGET FOR ENTIRE MODEL AT END OF TIME STEP    2, STRESS PERIOD   2
  ------------------------------------------------------------------------------

     CUMULATIVE VOLUMES      L**3       RATES FOR THIS TIME STEP      L**3/T
     ------------------                 ------------------------

           IN:                                      IN:
           ---                                      ---
             STORAGE =       1.6470E-07               STORAGE =       4.3230E-08
       CONSTANT HEAD =        1504.2154         CONSTANT HEAD =         501.4051
               WELLS =       3.0000E-03                 WELLS =       1.0000E-03

            TOTAL IN =        1504.2184              TOTAL IN =         501.4061

          OUT:                                     OUT:
          ----                                     ----
             STORAGE =       2.2129E-07               STORAGE =       5.9876E-08
       CONSTANT HEAD =        1504.2158         CONSTANT HEAD =         501.4053
               WELLS =           0.0000                 WELLS =           0.0000

           TOTAL OUT =        1504.2158             TOTAL OUT =         501.4053

            IN - OUT =       2.6423E-03              IN - OUT =       8.6644E-04

 PERCENT DISCREPANCY =           0.00     PERCENT DISCREPANCY =           0.00






         TIME SUMMARY AT END OF TIME STEP    2 IN STRESS PERIOD    2
                    SECONDS     MINUTES      HOURS       DAYS        YEARS
                    -----------------------------------------------------------
   TIME STEP LENGTH 1.29600E+05  2160.0      36.000      1.5000     4.10678E-03
 STRESS PERIOD TIME 2.59200E+05  4320.0      72.000      3.0000     8.21355E-03
         TOTAL TIME 2.59200E+05  4320.0      72.000      3.0000     8.21355E-03
1
1
                            STRESS PERIOD NO.    3, LENGTH =   3.000000    
                            -----------------------------------------------

                              NUMBER OF TIME STEPS =     2

                               MULTIPLIER FOR DELT =     1.000

                            INITIAL TIME STEP SIZE =   1.500000    

 WELL NO.  LAYER   ROW   COL   STRESS RATE         
 --------------------------------------------------
      1      1     28     25      0.1000E-02

      1 WELL 

 REUSING NON-PARAMETER SPECIFIED-HEAD DATA FROM LAST STRESS PERIOD


    100 TIME-VARIANT SPECIFIED-HEAD CELLS
 
 SOLVING FOR HEAD 

 OUTPUT CONTROL FOR STRESS PERIOD    3   TIME STEP    1
    SAVE HEAD FOR ALL LAYERS

 SAVING SATURATED THICKNESS AND FLOW TERMS ON UNIT   54 FOR MT3DMS
 BY THE LINK-MT3DMS PACKAGE V7 AT TIME STEP    1, STRESS PERIOD    3


 HEAD WILL BE SAVED ON UNIT   51 AT END OF TIME STEP    1, STRESS PERIOD    3
 
 SOLVING FOR HEAD 

 OUTPUT CONTROL FOR STRESS PERIOD    3   TIME STEP    2
    SAVE HEAD FOR ALL LAYERS

 SAVING SATURATED THICKNESS AND FLOW TERMS ON UNIT   54 FOR MT3DMS
 BY THE LINK-MT3DMS PACKAGE V7 AT TIME STEP    2, STRESS PERIOD    3


 HEAD WILL BE SAVED ON UNIT   51 AT END OF TIME STEP    2, STRESS PERIOD    3
1
  VOLUMETRIC BUDGET FOR ENTIRE MODEL AT END OF TIME STEP    2, STRESS PERIOD   3
  ------------------------------------------------------------------------------

     CUMULATIVE VOLUMES      L**3       RATES FOR THIS TIME STEP      L**3/T
     ------------------                 ------------------------

           IN:                                      IN:
           ---                                      ---
             STORAGE =       4.5121E-07               STORAGE =       1.7773E-07
       CONSTANT HEAD =        3008.4307         CONSTANT HEAD =         501.4051
               WELLS =       6.0000E-03                 WELLS =       1.0000E-03

            TOTAL IN =        3008.4367              TOTAL IN =         501.4061

          OUT:                                     OUT:
          ----                                     ----
             STORAGE =       4.8711E-07               STORAGE =       1.0368E-08
       CONSTANT HEAD =        3008.4316         CONSTANT HEAD =         501.4053
               WELLS =           0.0000                 WELLS =           0.0000

           TOTAL OUT =        3008.4316             TOTAL OUT =         501.4053

            IN - OUT =       5.1035E-03              IN - OUT =       8.1047E-04

 PERCENT DISCREPANCY =           0.00     PERCENT DISCREPANCY =           0.00






         TIME SUMMARY AT END OF TIME STEP    2 IN STRESS PERIOD    3
                    SECONDS     MINUTES      HOURS       DAYS        YEARS
                    -----------------------------------------------------------
   TIME STEP LENGTH 1.29600E+05  2160.0      36.000      1.5000     4.10678E-03
 STRESS PERIOD TIME 2.59200E+05  4320.0      72.000      3.0000     8.21355E-03
         TOTAL TIME 5.18400E+05  8640.0      144.00      6.0000     1.64271E-02
1
1
                            STRESS PERIOD NO.    4, LENGTH =   3.000000    
                            -----------------------------------------------

                              NUMBER OF TIME STEPS =     2

                               MULTIPLIER FOR DELT =     1.000

                            INITIAL TIME STEP SIZE =   1.500000    

 WELL NO.  LAYER   ROW   COL   STRESS RATE         
 --------------------------------------------------
      1      1     28     25      0.1000E-02

      1 WELL 

 REUSING NON-PARAMETER SPECIFIED-HEAD DATA FROM LAST STRESS PERIOD


    100 TIME-VARIANT SPECIFIED-HEAD CELLS
 
 SOLVING FOR HEAD 

 OUTPUT CONTROL FOR STRESS PERIOD    4   TIME STEP    1
    SAVE HEAD FOR ALL LAYERS

 SAVING SATURATED THICKNESS AND FLOW TERMS ON UNIT   54 FOR MT3DMS
 BY THE LINK-MT3DMS PACKAGE V7 AT TIME STEP    1, STRESS PERIOD    4


 HEAD WILL BE SAVED ON UNIT   51 AT END OF TIME STEP    1, STRESS PERIOD    4
 
 SOLVING FOR HEAD 

 OUTPUT CONTROL FOR STRESS PERIOD    4   TIME STEP    2
    SAVE HEAD FOR ALL LAYERS

 SAVING SATURATED THICKNESS AND FLOW TERMS ON UNIT   54 FOR MT3DMS
 BY THE LINK-MT3DMS PACKAGE V7 AT TIME STEP    2, STRESS PERIOD    4


 HEAD WILL BE SAVED ON UNIT   51 AT END OF TIME STEP    2, STRESS PERIOD    4
1
  VOLUMETRIC BUDGET FOR ENTIRE MODEL AT END OF TIME STEP    2, STRESS PERIOD   4
  ------------------------------------------------------------------------------

     CUMULATIVE VOLUMES      L**3       RATES FOR THIS TIME STEP      L**3/T
     ------------------                 ------------------------

           IN:                                      IN:
           ---                                      ---
             STORAGE =       7.2427E-07               STORAGE =       1.7614E-07
       CONSTANT HEAD =        4512.6458         CONSTANT HEAD =         501.4050
               WELLS =       9.0000E-03                 WELLS =       1.0000E-03

            TOTAL IN =        4512.6548              TOTAL IN =         501.4060

          OUT:                                     OUT:
          ----                                     ----
             STORAGE =       7.8699E-07               STORAGE =       7.3723E-09
       CONSTANT HEAD =        4512.6474         CONSTANT HEAD =         501.4053
               WELLS =           0.0000                 WELLS =           0.0000

           TOTAL OUT =        4512.6474             TOTAL OUT =         501.4053

            IN - OUT =       7.4287E-03              IN - OUT =       7.6539E-04

 PERCENT DISCREPANCY =           0.00     PERCENT DISCREPANCY =           0.00






         TIME SUMMARY AT END OF TIME STEP    2 IN STRESS PERIOD    4
                    SECONDS     MINUTES      HOURS       DAYS        YEARS
                    -----------------------------------------------------------
   TIME STEP LENGTH 1.29600E+05  2160.0      36.000      1.5000     4.10678E-03
 STRESS PERIOD TIME 2.59200E+05  4320.0      72.000      3.0000     8.21355E-03
         TOTAL TIME 7.77600E+05  12960.      216.00      9.0000     2.46407E-02
1
1
                            STRESS PERIOD NO.    5, LENGTH =   3.000000    
                            -----------------------------------------------

                              NUMBER OF TIME STEPS =     2

                               MULTIPLIER FOR DELT =     1.000

                            INITIAL TIME STEP SIZE =   1.500000    

 WELL NO.  LAYER   ROW   COL   STRESS RATE         
 --------------------------------------------------
      1      1     28     25      0.1000E-02

      1 WELL 

 REUSING NON-PARAMETER SPECIFIED-HEAD DATA FROM LAST STRESS PERIOD


    100 TIME-VARIANT SPECIFIED-HEAD CELLS
 
 SOLVING FOR HEAD 

 OUTPUT CONTROL FOR STRESS PERIOD    5   TIME STEP    1
    SAVE HEAD FOR ALL LAYERS

 SAVING SATURATED THICKNESS AND FLOW TERMS ON UNIT   54 FOR MT3DMS
 BY THE LINK-MT3DMS PACKAGE V7 AT TIME STEP    1, STRESS PERIOD    5


 HEAD WILL BE SAVED ON UNIT   51 AT END OF TIME STEP    1, STRESS PERIOD    5
 
 SOLVING FOR HEAD 

 OUTPUT CONTROL FOR STRESS PERIOD    5   TIME STEP    2
    SAVE HEAD FOR ALL LAYERS

 SAVING SATURATED THICKNESS AND FLOW TERMS ON UNIT   54 FOR MT3DMS
 BY THE LINK-MT3DMS PACKAGE V7 AT TIME STEP    2, STRESS PERIOD    5


 HEAD WILL BE SAVED ON UNIT   51 AT END OF TIME STEP    2, STRESS PERIOD    5
1
  VOLUMETRIC BUDGET FOR ENTIRE MODEL AT END OF TIME STEP    2, STRESS PERIOD   5
  ------------------------------------------------------------------------------

     CUMULATIVE VOLUMES      L**3       RATES FOR THIS TIME STEP      L**3/T
     ------------------                 ------------------------

           IN:                                      IN:
           ---                                      ---
             STORAGE =       9.9893E-07               STORAGE =       1.7777E-07
       CONSTANT HEAD =        6016.8608         CONSTANT HEAD =         501.4050
               WELLS =       1.2000E-02                 WELLS =       1.0000E-03

            TOTAL IN =        6016.8728              TOTAL IN =         501.4060

          OUT:                                     OUT:
          ----                                     ----
             STORAGE =       1.0723E-06               STORAGE =       6.1801E-09
       CONSTANT HEAD =        6016.8632         CONSTANT HEAD =         501.4053
               WELLS =           0.0000                 WELLS =           0.0000

           TOTAL OUT =        6016.8632             TOTAL OUT =         501.4053

            IN - OUT =       9.6244E-03              IN - OUT =       7.2275E-04

 PERCENT DISCREPANCY =           0.00     PERCENT DISCREPANCY =           0.00






         TIME SUMMARY AT END OF TIME STEP    2 IN STRESS PERIOD    5
                    SECONDS     MINUTES      HOURS       DAYS        YEARS
                    -----------------------------------------------------------
   TIME STEP LENGTH 1.29600E+05  2160.0      36.000      1.5000     4.10678E-03
 STRESS PERIOD TIME 2.59200E+05  4320.0      72.000      3.0000     8.21355E-03
         TOTAL TIME 1.03680E+06  17280.      288.00      12.000     3.28542E-02
1
1
                            STRESS PERIOD NO.    6, LENGTH =   3.000000    
                            -----------------------------------------------

                              NUMBER OF TIME STEPS =     2

                               MULTIPLIER FOR DELT =     1.000

                            INITIAL TIME STEP SIZE =   1.500000    

 WELL NO.  LAYER   ROW   COL   STRESS RATE         
 --------------------------------------------------
      1      1     28     25      0.1000E-02

      1 WELL 

 REUSING NON-PARAMETER SPECIFIED-HEAD DATA FROM LAST STRESS PERIOD


    100 TIME-VARIANT SPECIFIED-HEAD CELLS
 
 SOLVING FOR HEAD 

 OUTPUT CONTROL FOR STRESS PERIOD    6   TIME STEP    1
    SAVE HEAD FOR ALL LAYERS

 SAVING SATURATED THICKNESS AND FLOW TERMS ON UNIT   54 FOR MT3DMS
 BY THE LINK-MT3DMS PACKAGE V7 AT TIME STEP    1, STRESS PERIOD    6


 HEAD WILL BE SAVED ON UNIT   51 AT END OF TIME STEP    1, STRESS PERIOD    6
 
 SOLVING FOR HEAD 

 OUTPUT CONTROL FOR STRESS PERIOD    6   TIME STEP    2
    SAVE HEAD FOR ALL LAYERS

 SAVING SATURATED THICKNESS AND FLOW TERMS ON UNIT   54 FOR MT3DMS
 BY THE LINK-MT3DMS PACKAGE V7 AT TIME STEP    2, STRESS PERIOD    6


 HEAD WILL BE SAVED ON UNIT   51 AT END OF TIME STEP    2, STRESS PERIOD    6
1
  VOLUMETRIC BUDGET FOR ENTIRE MODEL AT END OF TIME STEP    2, STRESS PERIOD   6
  ------------------------------------------------------------------------------

     CUMULATIVE VOLUMES      L**3       RATES FOR THIS TIME STEP      L**3/T
     ------------------                 ------------------------

           IN:                                      IN:
           ---                                      ---
             STORAGE =       1.2800E-06               STORAGE =       1.8247E-07
       CONSTANT HEAD =        7521.0757         CONSTANT HEAD =         501.4050
               WELLS =       1.5000E-02                 WELLS =       1.0000E-03

            TOTAL IN =        7521.0907              TOTAL IN =         501.4060

          OUT:                                     OUT:
          ----                                     ----
             STORAGE =       1.3589E-06               STORAGE =       5.1673E-09
       CONSTANT HEAD =        7521.0790         CONSTANT HEAD =         501.4053
               WELLS =           0.0000                 WELLS =           0.0000

           TOTAL OUT =        7521.0790             TOTAL OUT =         501.4053

            IN - OUT =       1.1699E-02              IN - OUT =       6.8300E-04

 PERCENT DISCREPANCY =           0.00     PERCENT DISCREPANCY =           0.00






         TIME SUMMARY AT END OF TIME STEP    2 IN STRESS PERIOD    6
                    SECONDS     MINUTES      HOURS       DAYS        YEARS
                    -----------------------------------------------------------
   TIME STEP LENGTH 1.29600E+05  2160.0      36.000      1.5000     4.10678E-03
 STRESS PERIOD TIME 2.59200E+05  4320.0      72.000      3.0000     8.21355E-03
         TOTAL TIME 1.29600E+06  21600.      360.00      15.000     4.10678E-02
1
1
                            STRESS PERIOD NO.    7, LENGTH =   3.000000    
                            -----------------------------------------------

                              NUMBER OF TIME STEPS =     2

                               MULTIPLIER FOR DELT =     1.000

                            INITIAL TIME STEP SIZE =   1.500000    

 WELL NO.  LAYER   ROW   COL   STRESS RATE         
 --------------------------------------------------
      1      1     28     25      0.1000E-02

      1 WELL 

 REUSING NON-PARAMETER SPECIFIED-HEAD DATA FROM LAST STRESS PERIOD


    100 TIME-VARIANT SPECIFIED-HEAD CELLS
 
 SOLVING FOR HEAD 

 OUTPUT CONTROL FOR STRESS PERIOD    7   TIME STEP    1
    SAVE HEAD FOR ALL LAYERS

 SAVING SATURATED THICKNESS AND FLOW TERMS ON UNIT   54 FOR MT3DMS
 BY THE LINK-MT3DMS PACKAGE V7 AT TIME STEP    1, STRESS PERIOD    7


 HEAD WILL BE SAVED ON UNIT   51 AT END OF TIME STEP    1, STRESS PERIOD    7
 
 SOLVING FOR HEAD 

 OUTPUT CONTROL FOR STRESS PERIOD    7   TIME STEP    2
    SAVE HEAD FOR ALL LAYERS

 SAVING SATURATED THICKNESS AND FLOW TERMS ON UNIT   54 FOR MT3DMS
 BY THE LINK-MT3DMS PACKAGE V7 AT TIME STEP    2, STRESS PERIOD    7


 HEAD WILL BE SAVED ON UNIT   51 AT END OF TIME STEP    2, STRESS PERIOD    7
1
  VOLUMETRIC BUDGET FOR ENTIRE MODEL AT END OF TIME STEP    2, STRESS PERIOD   7
  ------------------------------------------------------------------------------

     CUMULATIVE VOLUMES      L**3       RATES FOR THIS TIME STEP      L**3/T
     ------------------                 ------------------------

           IN:                                      IN:
           ---                                      ---
             STORAGE =       1.5574E-06               STORAGE =       1.8060E-07
       CONSTANT HEAD =        9025.2905         CONSTANT HEAD =         501.4049
               WELLS =       1.8000E-02                 WELLS =       1.0000E-03

            TOTAL IN =        9025.3085              TOTAL IN =         501.4059

          OUT:                                     OUT:
          ----                                     ----
             STORAGE =       1.6444E-06               STORAGE =       4.2669E-09
       CONSTANT HEAD =        9025.2948         CONSTANT HEAD =         501.4053
               WELLS =           0.0000                 WELLS =           0.0000

           TOTAL OUT =        9025.2948             TOTAL OUT =         501.4053

            IN - OUT =       1.3663E-02              IN - OUT =       6.4655E-04

 PERCENT DISCREPANCY =           0.00     PERCENT DISCREPANCY =           0.00






         TIME SUMMARY AT END OF TIME STEP    2 IN STRESS PERIOD    7
                    SECONDS     MINUTES      HOURS       DAYS        YEARS
                    -----------------------------------------------------------
   TIME STEP LENGTH 1.29600E+05  2160.0      36.000      1.5000     4.10678E-03
 STRESS PERIOD TIME 2.59200E+05  4320.0      72.000      3.0000     8.21355E-03
         TOTAL TIME 1.55520E+06  25920.      432.00      18.000     4.92813E-02
1
1
                            STRESS PERIOD NO.    8, LENGTH =   3.000000    
                            -----------------------------------------------

                              NUMBER OF TIME STEPS =     2

                               MULTIPLIER FOR DELT =     1.000

                            INITIAL TIME STEP SIZE =   1.500000    

 WELL NO.  LAYER   ROW   COL   STRESS RATE         
 --------------------------------------------------
      1      1     28     25      0.1000E-02

      1 WELL 

 REUSING NON-PARAMETER SPECIFIED-HEAD DATA FROM LAST STRESS PERIOD


    100 TIME-VARIANT SPECIFIED-HEAD CELLS
 
 SOLVING FOR HEAD 

 OUTPUT CONTROL FOR STRESS PERIOD    8   TIME STEP    1
    SAVE HEAD FOR ALL LAYERS

 SAVING SATURATED THICKNESS AND FLOW TERMS ON UNIT   54 FOR MT3DMS
 BY THE LINK-MT3DMS PACKAGE V7 AT TIME STEP    1, STRESS PERIOD    8


 HEAD WILL BE SAVED ON UNIT   51 AT END OF TIME STEP    1, STRESS PERIOD    8
 
 SOLVING FOR HEAD 

 OUTPUT CONTROL FOR STRESS PERIOD    8   TIME STEP    2
    SAVE HEAD FOR ALL LAYERS

 SAVING SATURATED THICKNESS AND FLOW TERMS ON UNIT   54 FOR MT3DMS
 BY THE LINK-MT3DMS PACKAGE V7 AT TIME STEP    2, STRESS PERIOD    8


 HEAD WILL BE SAVED ON UNIT   51 AT END OF TIME STEP    2, STRESS PERIOD    8
1
  VOLUMETRIC BUDGET FOR ENTIRE MODEL AT END OF TIME STEP    2, STRESS PERIOD   8
  ------------------------------------------------------------------------------

     CUMULATIVE VOLUMES      L**3       RATES FOR THIS TIME STEP      L**3/T
     ------------------                 ------------------------

           IN:                                      IN:
           ---                                      ---
             STORAGE =       1.8139E-06               STORAGE =       1.6712E-07
       CONSTANT HEAD =       10529.5052         CONSTANT HEAD =         501.4049
               WELLS =       2.1000E-02                 WELLS =       1.0000E-03

            TOTAL IN =       10529.5262              TOTAL IN =         501.4059

          OUT:                                     OUT:
          ----                                     ----
             STORAGE =       1.9142E-06               STORAGE =       3.6314E-09
       CONSTANT HEAD =       10529.5106         CONSTANT HEAD =         501.4053
               WELLS =           0.0000                 WELLS =           0.0000

           TOTAL OUT =       10529.5106             TOTAL OUT =         501.4053

            IN - OUT =       1.5525E-02              IN - OUT =       6.1329E-04

 PERCENT DISCREPANCY =           0.00     PERCENT DISCREPANCY =           0.00






         TIME SUMMARY AT END OF TIME STEP    2 IN STRESS PERIOD    8
                    SECONDS     MINUTES      HOURS       DAYS        YEARS
                    -----------------------------------------------------------
   TIME STEP LENGTH 1.29600E+05  2160.0      36.000      1.5000     4.10678E-03
 STRESS PERIOD TIME 2.59200E+05  4320.0      72.000      3.0000     8.21355E-03
         TOTAL TIME 1.81440E+06  30240.      504.00      21.000     5.74949E-02
1
1
                            STRESS PERIOD NO.    9, LENGTH =   3.000000    
                            -----------------------------------------------

                              NUMBER OF TIME STEPS =     2

                               MULTIPLIER FOR DELT =     1.000

                            INITIAL TIME STEP SIZE =   1.500000    

 WELL NO.  LAYER   ROW   COL   STRESS RATE         
 --------------------------------------------------
      1      1     28     25      0.1000E-02

      1 WELL 

 REUSING NON-PARAMETER SPECIFIED-HEAD DATA FROM LAST STRESS PERIOD


    100 TIME-VARIANT SPECIFIED-HEAD CELLS
 
 SOLVING FOR HEAD 

 OUTPUT CONTROL FOR STRESS PERIOD    9   TIME STEP    1
    SAVE HEAD FOR ALL LAYERS

 SAVING SATURATED THICKNESS AND FLOW TERMS ON UNIT   54 FOR MT3DMS
 BY THE LINK-MT3DMS PACKAGE V7 AT TIME STEP    1, STRESS PERIOD    9


 HEAD WILL BE SAVED ON UNIT   51 AT END OF TIME STEP    1, STRESS PERIOD    9
 
 SOLVING FOR HEAD 

 OUTPUT CONTROL FOR STRESS PERIOD    9   TIME STEP    2
    SAVE HEAD FOR ALL LAYERS

 SAVING SATURATED THICKNESS AND FLOW TERMS ON UNIT   54 FOR MT3DMS
 BY THE LINK-MT3DMS PACKAGE V7 AT TIME STEP    2, STRESS PERIOD    9


 HEAD WILL BE SAVED ON UNIT   51 AT END OF TIME STEP    2, STRESS PERIOD    9
1
  VOLUMETRIC BUDGET FOR ENTIRE MODEL AT END OF TIME STEP    2, STRESS PERIOD   9
  ------------------------------------------------------------------------------

     CUMULATIVE VOLUMES      L**3       RATES FOR THIS TIME STEP      L**3/T
     ------------------                 ------------------------

           IN:                                      IN:
           ---                                      ---
             STORAGE =       2.0424E-06               STORAGE =       1.4860E-07
       CONSTANT HEAD =       12033.7197         CONSTANT HEAD =         501.4049
               WELLS =       2.4000E-02                 WELLS =       1.0000E-03

            TOTAL IN =       12033.7437              TOTAL IN =         501.4059

          OUT:                                     OUT:
          ----                                     ----
             STORAGE =       2.1563E-06               STORAGE =       3.4789E-09
       CONSTANT HEAD =       12033.7265         CONSTANT HEAD =         501.4053
               WELLS =           0.0000                 WELLS =           0.0000

           TOTAL OUT =       12033.7265             TOTAL OUT =         501.4053

            IN - OUT =       1.7293E-02              IN - OUT =       5.8255E-04

 PERCENT DISCREPANCY =           0.00     PERCENT DISCREPANCY =           0.00






         TIME SUMMARY AT END OF TIME STEP    2 IN STRESS PERIOD    9
                    SECONDS     MINUTES      HOURS       DAYS        YEARS
                    -----------------------------------------------------------
   TIME STEP LENGTH 1.29600E+05  2160.0      36.000      1.5000     4.10678E-03
 STRESS PERIOD TIME 2.59200E+05  4320.0      72.000      3.0000     8.21355E-03
         TOTAL TIME 2.07360E+06  34560.      576.00      24.000     6.57084E-02
1
1
                            STRESS PERIOD NO.   10, LENGTH =   3.000000    
                            -----------------------------------------------

                              NUMBER OF TIME STEPS =     2

                               MULTIPLIER FOR DELT =     1.000

                            INITIAL TIME STEP SIZE =   1.500000    

 WELL NO.  LAYER   ROW   COL   STRESS RATE         
 --------------------------------------------------
      1      1     28     25      0.1000E-02

      1 WELL 

 REUSING NON-PARAMETER SPECIFIED-HEAD DATA FROM LAST STRESS PERIOD


    100 TIME-VARIANT SPECIFIED-HEAD CELLS
 
 SOLVING FOR HEAD 

 OUTPUT CONTROL FOR STRESS PERIOD   10   TIME STEP    1
    SAVE HEAD FOR ALL LAYERS

 SAVING SATURATED THICKNESS AND FLOW TERMS ON UNIT   54 FOR MT3DMS
 BY THE LINK-MT3DMS PACKAGE V7 AT TIME STEP    1, STRESS PERIOD   10


 HEAD WILL BE SAVED ON UNIT   51 AT END OF TIME STEP    1, STRESS PERIOD   10
 
 SOLVING FOR HEAD 

 OUTPUT CONTROL FOR STRESS PERIOD   10   TIME STEP    2
    SAVE HEAD FOR ALL LAYERS

 SAVING SATURATED THICKNESS AND FLOW TERMS ON UNIT   54 FOR MT3DMS
 BY THE LINK-MT3DMS PACKAGE V7 AT TIME STEP    2, STRESS PERIOD   10


 HEAD WILL BE SAVED ON UNIT   51 AT END OF TIME STEP    2, STRESS PERIOD   10
1
  VOLUMETRIC BUDGET FOR ENTIRE MODEL AT END OF TIME STEP    2, STRESS PERIOD  10
  ------------------------------------------------------------------------------

     CUMULATIVE VOLUMES      L**3       RATES FOR THIS TIME STEP      L**3/T
     ------------------                 ------------------------

           IN:                                      IN:
           ---                                      ---
             STORAGE =       2.2470E-06               STORAGE =       1.3245E-07
       CONSTANT HEAD =       13537.9342         CONSTANT HEAD =         501.4048
               WELLS =       2.7000E-02                 WELLS =       1.0000E-03

            TOTAL IN =       13537.9612              TOTAL IN =         501.4058

          OUT:                                     OUT:
          ----                                     ----
             STORAGE =       2.3716E-06               STORAGE =       3.6566E-09
       CONSTANT HEAD =       13537.9423         CONSTANT HEAD =         501.4053
               WELLS =           0.0000                 WELLS =           0.0000

           TOTAL OUT =       13537.9423             TOTAL OUT =         501.4053

            IN - OUT =       1.8973E-02              IN - OUT =       5.5369E-04

 PERCENT DISCREPANCY =           0.00     PERCENT DISCREPANCY =           0.00






         TIME SUMMARY AT END OF TIME STEP    2 IN STRESS PERIOD   10
                    SECONDS     MINUTES      HOURS       DAYS        YEARS
                    -----------------------------------------------------------
   TIME STEP LENGTH 1.29600E+05  2160.0      36.000      1.5000     4.10678E-03
 STRESS PERIOD TIME 2.59200E+05  4320.0      72.000      3.0000     8.21355E-03
         TOTAL TIME 2.33280E+06  38880.      648.00      27.000     7.39220E-02
1
1
                            STRESS PERIOD NO.   11, LENGTH =   3.000000    
                            -----------------------------------------------

                              NUMBER OF TIME STEPS =     2

                               MULTIPLIER FOR DELT =     1.000

                            INITIAL TIME STEP SIZE =   1.500000    

 WELL NO.  LAYER   ROW   COL   STRESS RATE         
 --------------------------------------------------
      1      1     28     25      0.1000E-02

      1 WELL 

 REUSING NON-PARAMETER SPECIFIED-HEAD DATA FROM LAST STRESS PERIOD


    100 TIME-VARIANT SPECIFIED-HEAD CELLS
 
 SOLVING FOR HEAD 

 OUTPUT CONTROL FOR STRESS PERIOD   11   TIME STEP    1
    SAVE HEAD FOR ALL LAYERS

 SAVING SATURATED THICKNESS AND FLOW TERMS ON UNIT   54 FOR MT3DMS
 BY THE LINK-MT3DMS PACKAGE V7 AT TIME STEP    1, STRESS PERIOD   11


 HEAD WILL BE SAVED ON UNIT   51 AT END OF TIME STEP    1, STRESS PERIOD   11
 
 SOLVING FOR HEAD 

 OUTPUT CONTROL FOR STRESS PERIOD   11   TIME STEP    2
    SAVE HEAD FOR ALL LAYERS

 SAVING SATURATED THICKNESS AND FLOW TERMS ON UNIT   54 FOR MT3DMS
 BY THE LINK-MT3DMS PACKAGE V7 AT TIME STEP    2, STRESS PERIOD   11


 HEAD WILL BE SAVED ON UNIT   51 AT END OF TIME STEP    2, STRESS PERIOD   11
1
  VOLUMETRIC BUDGET FOR ENTIRE MODEL AT END OF TIME STEP    2, STRESS PERIOD  11
  ------------------------------------------------------------------------------

     CUMULATIVE VOLUMES      L**3       RATES FOR THIS TIME STEP      L**3/T
     ------------------                 ------------------------

           IN:                                      IN:
           ---                                      ---
             STORAGE =       2.4335E-06               STORAGE =       1.2012E-07
       CONSTANT HEAD =       15042.1487         CONSTANT HEAD =         501.4048
               WELLS =       3.0000E-02                 WELLS =       1.0000E-03

            TOTAL IN =       15042.1787              TOTAL IN =         501.4058

          OUT:                                     OUT:
          ----                                     ----
             STORAGE =       2.5657E-06               STORAGE =       3.8394E-09
       CONSTANT HEAD =       15042.1581         CONSTANT HEAD =         501.4053
               WELLS =           0.0000                 WELLS =           0.0000

           TOTAL OUT =       15042.1581             TOTAL OUT =         501.4053

            IN - OUT =       2.0571E-02              IN - OUT =       5.2642E-04

 PERCENT DISCREPANCY =           0.00     PERCENT DISCREPANCY =           0.00






         TIME SUMMARY AT END OF TIME STEP    2 IN STRESS PERIOD   11
                    SECONDS     MINUTES      HOURS       DAYS        YEARS
                    -----------------------------------------------------------
   TIME STEP LENGTH 1.29600E+05  2160.0      36.000      1.5000     4.10678E-03
 STRESS PERIOD TIME 2.59200E+05  4320.0      72.000      3.0000     8.21355E-03
         TOTAL TIME 2.59200E+06  43200.      720.00      30.000     8.21355E-02
1
1
                            STRESS PERIOD NO.   12, LENGTH =   3.000000    
                            -----------------------------------------------

                              NUMBER OF TIME STEPS =     2

                               MULTIPLIER FOR DELT =     1.000

                            INITIAL TIME STEP SIZE =   1.500000    

 WELL NO.  LAYER   ROW   COL   STRESS RATE         
 --------------------------------------------------
      1      1     28     25      0.1000E-02

      1 WELL 

 REUSING NON-PARAMETER SPECIFIED-HEAD DATA FROM LAST STRESS PERIOD


    100 TIME-VARIANT SPECIFIED-HEAD CELLS
 
 SOLVING FOR HEAD 

 OUTPUT CONTROL FOR STRESS PERIOD   12   TIME STEP    1
    SAVE HEAD FOR ALL LAYERS

 SAVING SATURATED THICKNESS AND FLOW TERMS ON UNIT   54 FOR MT3DMS
 BY THE LINK-MT3DMS PACKAGE V7 AT TIME STEP    1, STRESS PERIOD   12


 HEAD WILL BE SAVED ON UNIT   51 AT END OF TIME STEP    1, STRESS PERIOD   12
 
 SOLVING FOR HEAD 

 OUTPUT CONTROL FOR STRESS PERIOD   12   TIME STEP    2
    SAVE HEAD FOR ALL LAYERS

 SAVING SATURATED THICKNESS AND FLOW TERMS ON UNIT   54 FOR MT3DMS
 BY THE LINK-MT3DMS PACKAGE V7 AT TIME STEP    2, STRESS PERIOD   12


 HEAD WILL BE SAVED ON UNIT   51 AT END OF TIME STEP    2, STRESS PERIOD   12
1
  VOLUMETRIC BUDGET FOR ENTIRE MODEL AT END OF TIME STEP    2, STRESS PERIOD  12
  ------------------------------------------------------------------------------

     CUMULATIVE VOLUMES      L**3       RATES FOR THIS TIME STEP      L**3/T
     ------------------                 ------------------------

           IN:                                      IN:
           ---                                      ---
             STORAGE =       2.6060E-06               STORAGE =       1.1060E-07
       CONSTANT HEAD =       16546.3630         CONSTANT HEAD =         501.4048
               WELLS =       3.3000E-02                 WELLS =       1.0000E-03

            TOTAL IN =       16546.3960              TOTAL IN =         501.4058

          OUT:                                     OUT:
          ----                                     ----
             STORAGE =       2.7435E-06               STORAGE =       3.8799E-09
       CONSTANT HEAD =       16546.3739         CONSTANT HEAD =         501.4053
               WELLS =           0.0000                 WELLS =           0.0000

           TOTAL OUT =       16546.3739             TOTAL OUT =         501.4053

            IN - OUT =       2.2090E-02              IN - OUT =       5.0059E-04

 PERCENT DISCREPANCY =           0.00     PERCENT DISCREPANCY =           0.00






         TIME SUMMARY AT END OF TIME STEP    2 IN STRESS PERIOD   12
                    SECONDS     MINUTES      HOURS       DAYS        YEARS
                    -----------------------------------------------------------
   TIME STEP LENGTH 1.29600E+05  2160.0      36.000      1.5000     4.10678E-03
 STRESS PERIOD TIME 2.59200E+05  4320.0      72.000      3.0000     8.21355E-03
         TOTAL TIME 2.85120E+06  47520.      792.00      33.000     9.03491E-02
1
1
                            STRESS PERIOD NO.   13, LENGTH =   3.000000    
                            -----------------------------------------------

                              NUMBER OF TIME STEPS =     2

                               MULTIPLIER FOR DELT =     1.000

                            INITIAL TIME STEP SIZE =   1.500000    

 WELL NO.  LAYER   ROW   COL   STRESS RATE         
 --------------------------------------------------
      1      1     28     25      0.1000E-02

      1 WELL 

 REUSING NON-PARAMETER SPECIFIED-HEAD DATA FROM LAST STRESS PERIOD


    100 TIME-VARIANT SPECIFIED-HEAD CELLS
 
 SOLVING FOR HEAD 

 OUTPUT CONTROL FOR STRESS PERIOD   13   TIME STEP    1
    SAVE HEAD FOR ALL LAYERS

 SAVING SATURATED THICKNESS AND FLOW TERMS ON UNIT   54 FOR MT3DMS
 BY THE LINK-MT3DMS PACKAGE V7 AT TIME STEP    1, STRESS PERIOD   13


 HEAD WILL BE SAVED ON UNIT   51 AT END OF TIME STEP    1, STRESS PERIOD   13
 
 SOLVING FOR HEAD 

 OUTPUT CONTROL FOR STRESS PERIOD   13   TIME STEP    2
    SAVE HEAD FOR ALL LAYERS

 SAVING SATURATED THICKNESS AND FLOW TERMS ON UNIT   54 FOR MT3DMS
 BY THE LINK-MT3DMS PACKAGE V7 AT TIME STEP    2, STRESS PERIOD   13


 HEAD WILL BE SAVED ON UNIT   51 AT END OF TIME STEP    2, STRESS PERIOD   13
1
  VOLUMETRIC BUDGET FOR ENTIRE MODEL AT END OF TIME STEP    2, STRESS PERIOD  13
  ------------------------------------------------------------------------------

     CUMULATIVE VOLUMES      L**3       RATES FOR THIS TIME STEP      L**3/T
     ------------------                 ------------------------

           IN:                                      IN:
           ---                                      ---
             STORAGE =       2.7669E-06               STORAGE =       1.0288E-07
       CONSTANT HEAD =       18050.5773         CONSTANT HEAD =         501.4047
               WELLS =       3.6000E-02                 WELLS =       1.0000E-03

            TOTAL IN =       18050.6133              TOTAL IN =         501.4057

          OUT:                                     OUT:
          ----                                     ----
             STORAGE =       2.9083E-06               STORAGE =       3.8021E-09
       CONSTANT HEAD =       18050.5897         CONSTANT HEAD =         501.4053
               WELLS =           0.0000                 WELLS =           0.0000

           TOTAL OUT =       18050.5897             TOTAL OUT =         501.4053

            IN - OUT =       2.3535E-02              IN - OUT =       4.7610E-04

 PERCENT DISCREPANCY =           0.00     PERCENT DISCREPANCY =           0.00






         TIME SUMMARY AT END OF TIME STEP    2 IN STRESS PERIOD   13
                    SECONDS     MINUTES      HOURS       DAYS        YEARS
                    -----------------------------------------------------------
   TIME STEP LENGTH 1.29600E+05  2160.0      36.000      1.5000     4.10678E-03
 STRESS PERIOD TIME 2.59200E+05  4320.0      72.000      3.0000     8.21355E-03
         TOTAL TIME 3.11040E+06  51840.      864.00      36.000     9.85626E-02
1
1
                            STRESS PERIOD NO.   14, LENGTH =   3.000000    
                            -----------------------------------------------

                              NUMBER OF TIME STEPS =     2

                               MULTIPLIER FOR DELT =     1.000

                            INITIAL TIME STEP SIZE =   1.500000    

 WELL NO.  LAYER   ROW   COL   STRESS RATE         
 --------------------------------------------------
      1      1     28     25      0.1000E-02

      1 WELL 

 REUSING NON-PARAMETER SPECIFIED-HEAD DATA FROM LAST STRESS PERIOD


    100 TIME-VARIANT SPECIFIED-HEAD CELLS
 
 SOLVING FOR HEAD 

 OUTPUT CONTROL FOR STRESS PERIOD   14   TIME STEP    1
    SAVE HEAD FOR ALL LAYERS

 SAVING SATURATED THICKNESS AND FLOW TERMS ON UNIT   54 FOR MT3DMS
 BY THE LINK-MT3DMS PACKAGE V7 AT TIME STEP    1, STRESS PERIOD   14


 HEAD WILL BE SAVED ON UNIT   51 AT END OF TIME STEP    1, STRESS PERIOD   14
 
 SOLVING FOR HEAD 

 OUTPUT CONTROL FOR STRESS PERIOD   14   TIME STEP    2
    SAVE HEAD FOR ALL LAYERS

 SAVING SATURATED THICKNESS AND FLOW TERMS ON UNIT   54 FOR MT3DMS
 BY THE LINK-MT3DMS PACKAGE V7 AT TIME STEP    2, STRESS PERIOD   14


 HEAD WILL BE SAVED ON UNIT   51 AT END OF TIME STEP    2, STRESS PERIOD   14
1
  VOLUMETRIC BUDGET FOR ENTIRE MODEL AT END OF TIME STEP    2, STRESS PERIOD  14
  ------------------------------------------------------------------------------

     CUMULATIVE VOLUMES      L**3       RATES FOR THIS TIME STEP      L**3/T
     ------------------                 ------------------------

           IN:                                      IN:
           ---                                      ---
             STORAGE =       2.9178E-06               STORAGE =       9.6307E-08
       CONSTANT HEAD =       19554.7914         CONSTANT HEAD =         501.4047
               WELLS =       3.9000E-02                 WELLS =       1.0000E-03

            TOTAL IN =       19554.8304              TOTAL IN =         501.4057

          OUT:                                     OUT:
          ----                                     ----
             STORAGE =       3.0621E-06               STORAGE =       3.6541E-09
       CONSTANT HEAD =       19554.8055         CONSTANT HEAD =         501.4053
               WELLS =           0.0000                 WELLS =           0.0000

           TOTAL OUT =       19554.8055             TOTAL OUT =         501.4053

            IN - OUT =       2.4909E-02              IN - OUT =       4.5288E-04

 PERCENT DISCREPANCY =           0.00     PERCENT DISCREPANCY =           0.00






         TIME SUMMARY AT END OF TIME STEP    2 IN STRESS PERIOD   14
                    SECONDS     MINUTES      HOURS       DAYS        YEARS
                    -----------------------------------------------------------
   TIME STEP LENGTH 1.29600E+05  2160.0      36.000      1.5000     4.10678E-03
 STRESS PERIOD TIME 2.59200E+05  4320.0      72.000      3.0000     8.21355E-03
         TOTAL TIME 3.36960E+06  56160.      936.00      39.000     0.10678    
1
1
                            STRESS PERIOD NO.   15, LENGTH =   3.000000    
                            -----------------------------------------------

                              NUMBER OF TIME STEPS =     2

                               MULTIPLIER FOR DELT =     1.000

                            INITIAL TIME STEP SIZE =   1.500000    

 WELL NO.  LAYER   ROW   COL   STRESS RATE         
 --------------------------------------------------
      1      1     28     25      0.1000E-02

      1 WELL 

 REUSING NON-PARAMETER SPECIFIED-HEAD DATA FROM LAST STRESS PERIOD


    100 TIME-VARIANT SPECIFIED-HEAD CELLS
 
 SOLVING FOR HEAD 

 OUTPUT CONTROL FOR STRESS PERIOD   15   TIME STEP    1
    SAVE HEAD FOR ALL LAYERS

 SAVING SATURATED THICKNESS AND FLOW TERMS ON UNIT   54 FOR MT3DMS
 BY THE LINK-MT3DMS PACKAGE V7 AT TIME STEP    1, STRESS PERIOD   15


 HEAD WILL BE SAVED ON UNIT   51 AT END OF TIME STEP    1, STRESS PERIOD   15
 
 SOLVING FOR HEAD 

 OUTPUT CONTROL FOR STRESS PERIOD   15   TIME STEP    2
    SAVE HEAD FOR ALL LAYERS

 SAVING SATURATED THICKNESS AND FLOW TERMS ON UNIT   54 FOR MT3DMS
 BY THE LINK-MT3DMS PACKAGE V7 AT TIME STEP    2, STRESS PERIOD   15


 HEAD WILL BE SAVED ON UNIT   51 AT END OF TIME STEP    2, STRESS PERIOD   15
1
  VOLUMETRIC BUDGET FOR ENTIRE MODEL AT END OF TIME STEP    2, STRESS PERIOD  15
  ------------------------------------------------------------------------------

     CUMULATIVE VOLUMES      L**3       RATES FOR THIS TIME STEP      L**3/T
     ------------------                 ------------------------

           IN:                                      IN:
           ---                                      ---
             STORAGE =       3.0598E-06               STORAGE =       9.0503E-08
       CONSTANT HEAD =       21059.0056         CONSTANT HEAD =         501.4047
               WELLS =       4.2000E-02                 WELLS =       1.0000E-03

            TOTAL IN =       21059.0476              TOTAL IN =         501.4057

          OUT:                                     OUT:
          ----                                     ----
             STORAGE =       3.2062E-06               STORAGE =       3.4751E-09
       CONSTANT HEAD =       21059.0213         CONSTANT HEAD =         501.4053
               WELLS =           0.0000                 WELLS =           0.0000

           TOTAL OUT =       21059.0213             TOTAL OUT =         501.4053

            IN - OUT =       2.6217E-02              IN - OUT =       4.3087E-04

 PERCENT DISCREPANCY =           0.00     PERCENT DISCREPANCY =           0.00






         TIME SUMMARY AT END OF TIME STEP    2 IN STRESS PERIOD   15
                    SECONDS     MINUTES      HOURS       DAYS        YEARS
                    -----------------------------------------------------------
   TIME STEP LENGTH 1.29600E+05  2160.0      36.000      1.5000     4.10678E-03
 STRESS PERIOD TIME 2.59200E+05  4320.0      72.000      3.0000     8.21355E-03
         TOTAL TIME 3.62880E+06  60480.      1008.0      42.000     0.11499    
1
1
                            STRESS PERIOD NO.   16, LENGTH =   3.000000    
                            -----------------------------------------------

                              NUMBER OF TIME STEPS =     2

                               MULTIPLIER FOR DELT =     1.000

                            INITIAL TIME STEP SIZE =   1.500000    

 WELL NO.  LAYER   ROW   COL   STRESS RATE         
 --------------------------------------------------
      1      1     28     25      0.1000E-02

      1 WELL 

 REUSING NON-PARAMETER SPECIFIED-HEAD DATA FROM LAST STRESS PERIOD


    100 TIME-VARIANT SPECIFIED-HEAD CELLS
 
 SOLVING FOR HEAD 

 OUTPUT CONTROL FOR STRESS PERIOD   16   TIME STEP    1
    SAVE HEAD FOR ALL LAYERS

 SAVING SATURATED THICKNESS AND FLOW TERMS ON UNIT   54 FOR MT3DMS
 BY THE LINK-MT3DMS PACKAGE V7 AT TIME STEP    1, STRESS PERIOD   16


 HEAD WILL BE SAVED ON UNIT   51 AT END OF TIME STEP    1, STRESS PERIOD   16
 
 SOLVING FOR HEAD 

 OUTPUT CONTROL FOR STRESS PERIOD   16   TIME STEP    2
    SAVE HEAD FOR ALL LAYERS

 SAVING SATURATED THICKNESS AND FLOW TERMS ON UNIT   54 FOR MT3DMS
 BY THE LINK-MT3DMS PACKAGE V7 AT TIME STEP    2, STRESS PERIOD   16


 HEAD WILL BE SAVED ON UNIT   51 AT END OF TIME STEP    2, STRESS PERIOD   16
1
  VOLUMETRIC BUDGET FOR ENTIRE MODEL AT END OF TIME STEP    2, STRESS PERIOD  16
  ------------------------------------------------------------------------------

     CUMULATIVE VOLUMES      L**3       RATES FOR THIS TIME STEP      L**3/T
     ------------------                 ------------------------

           IN:                                      IN:
           ---                                      ---
             STORAGE =       3.1936E-06               STORAGE =       8.5259E-08
       CONSTANT HEAD =       22563.2196         CONSTANT HEAD =         501.4047
               WELLS =       4.5000E-02                 WELLS =       1.0000E-03

            TOTAL IN =       22563.2646              TOTAL IN =         501.4057

          OUT:                                     OUT:
          ----                                     ----
             STORAGE =       3.3417E-06               STORAGE =       3.2875E-09
       CONSTANT HEAD =       22563.2372         CONSTANT HEAD =         501.4053
               WELLS =           0.0000                 WELLS =           0.0000

           TOTAL OUT =       22563.2372             TOTAL OUT =         501.4053

            IN - OUT =       2.7461E-02              IN - OUT =       4.0999E-04

 PERCENT DISCREPANCY =           0.00     PERCENT DISCREPANCY =           0.00






         TIME SUMMARY AT END OF TIME STEP    2 IN STRESS PERIOD   16
                    SECONDS     MINUTES      HOURS       DAYS        YEARS
                    -----------------------------------------------------------
   TIME STEP LENGTH 1.29600E+05  2160.0      36.000      1.5000     4.10678E-03
 STRESS PERIOD TIME 2.59200E+05  4320.0      72.000      3.0000     8.21355E-03
         TOTAL TIME 3.88800E+06  64800.      1080.0      45.000     0.12320    
1
1
                            STRESS PERIOD NO.   17, LENGTH =   3.000000    
                            -----------------------------------------------

                              NUMBER OF TIME STEPS =     2

                               MULTIPLIER FOR DELT =     1.000

                            INITIAL TIME STEP SIZE =   1.500000    

 WELL NO.  LAYER   ROW   COL   STRESS RATE         
 --------------------------------------------------
      1      1     28     25      0.1000E-02

      1 WELL 

 REUSING NON-PARAMETER SPECIFIED-HEAD DATA FROM LAST STRESS PERIOD


    100 TIME-VARIANT SPECIFIED-HEAD CELLS
 
 SOLVING FOR HEAD 

 OUTPUT CONTROL FOR STRESS PERIOD   17   TIME STEP    1
    SAVE HEAD FOR ALL LAYERS

 SAVING SATURATED THICKNESS AND FLOW TERMS ON UNIT   54 FOR MT3DMS
 BY THE LINK-MT3DMS PACKAGE V7 AT TIME STEP    1, STRESS PERIOD   17


 HEAD WILL BE SAVED ON UNIT   51 AT END OF TIME STEP    1, STRESS PERIOD   17
 
 SOLVING FOR HEAD 

 OUTPUT CONTROL FOR STRESS PERIOD   17   TIME STEP    2
    SAVE HEAD FOR ALL LAYERS

 SAVING SATURATED THICKNESS AND FLOW TERMS ON UNIT   54 FOR MT3DMS
 BY THE LINK-MT3DMS PACKAGE V7 AT TIME STEP    2, STRESS PERIOD   17


 HEAD WILL BE SAVED ON UNIT   51 AT END OF TIME STEP    2, STRESS PERIOD   17
1
  VOLUMETRIC BUDGET FOR ENTIRE MODEL AT END OF TIME STEP    2, STRESS PERIOD  17
  ------------------------------------------------------------------------------

     CUMULATIVE VOLUMES      L**3       RATES FOR THIS TIME STEP      L**3/T
     ------------------                 ------------------------

           IN:                                      IN:
           ---                                      ---
             STORAGE =       3.3199E-06               STORAGE =       8.0448E-08
       CONSTANT HEAD =       24067.4336         CONSTANT HEAD =         501.4047
               WELLS =       4.8000E-02                 WELLS =       1.0000E-03

            TOTAL IN =       24067.4816              TOTAL IN =         501.4057

          OUT:                                     OUT:
          ----                                     ----
             STORAGE =       3.4693E-06               STORAGE =       3.1026E-09
       CONSTANT HEAD =       24067.4530         CONSTANT HEAD =         501.4053
               WELLS =           0.0000                 WELLS =           0.0000

           TOTAL OUT =       24067.4530             TOTAL OUT =         501.4053

            IN - OUT =       2.8645E-02              IN - OUT =       3.9020E-04

 PERCENT DISCREPANCY =           0.00     PERCENT DISCREPANCY =           0.00






         TIME SUMMARY AT END OF TIME STEP    2 IN STRESS PERIOD   17
                    SECONDS     MINUTES      HOURS       DAYS        YEARS
                    -----------------------------------------------------------
   TIME STEP LENGTH 1.29600E+05  2160.0      36.000      1.5000     4.10678E-03
 STRESS PERIOD TIME 2.59200E+05  4320.0      72.000      3.0000     8.21355E-03
         TOTAL TIME 4.14720E+06  69120.      1152.0      48.000     0.13142    
1
1
                            STRESS PERIOD NO.   18, LENGTH =   3.000000    
                            -----------------------------------------------

                              NUMBER OF TIME STEPS =     2

                               MULTIPLIER FOR DELT =     1.000

                            INITIAL TIME STEP SIZE =   1.500000    

 WELL NO.  LAYER   ROW   COL   STRESS RATE         
 --------------------------------------------------
      1      1     28     25      0.1000E-02

      1 WELL 

 REUSING NON-PARAMETER SPECIFIED-HEAD DATA FROM LAST STRESS PERIOD


    100 TIME-VARIANT SPECIFIED-HEAD CELLS
 
 SOLVING FOR HEAD 

 OUTPUT CONTROL FOR STRESS PERIOD   18   TIME STEP    1
    SAVE HEAD FOR ALL LAYERS

 SAVING SATURATED THICKNESS AND FLOW TERMS ON UNIT   54 FOR MT3DMS
 BY THE LINK-MT3DMS PACKAGE V7 AT TIME STEP    1, STRESS PERIOD   18


 HEAD WILL BE SAVED ON UNIT   51 AT END OF TIME STEP    1, STRESS PERIOD   18
 
 SOLVING FOR HEAD 

 OUTPUT CONTROL FOR STRESS PERIOD   18   TIME STEP    2
    SAVE HEAD FOR ALL LAYERS

 SAVING SATURATED THICKNESS AND FLOW TERMS ON UNIT   54 FOR MT3DMS
 BY THE LINK-MT3DMS PACKAGE V7 AT TIME STEP    2, STRESS PERIOD   18


 HEAD WILL BE SAVED ON UNIT   51 AT END OF TIME STEP    2, STRESS PERIOD   18
1
  VOLUMETRIC BUDGET FOR ENTIRE MODEL AT END OF TIME STEP    2, STRESS PERIOD  18
  ------------------------------------------------------------------------------

     CUMULATIVE VOLUMES      L**3       RATES FOR THIS TIME STEP      L**3/T
     ------------------                 ------------------------

           IN:                                      IN:
           ---                                      ---
             STORAGE =       3.4393E-06               STORAGE =       7.5995E-08
       CONSTANT HEAD =       25571.6475         CONSTANT HEAD =         501.4046
               WELLS =       5.1000E-02                 WELLS =       1.0000E-03

            TOTAL IN =       25571.6985              TOTAL IN =         501.4056

          OUT:                                     OUT:
          ----                                     ----
             STORAGE =       3.5897E-06               STORAGE =       2.9253E-09
       CONSTANT HEAD =       25571.6688         CONSTANT HEAD =         501.4053
               WELLS =           0.0000                 WELLS =           0.0000

           TOTAL OUT =       25571.6688             TOTAL OUT =         501.4053

            IN - OUT =       2.9771E-02              IN - OUT =       3.7142E-04

 PERCENT DISCREPANCY =           0.00     PERCENT DISCREPANCY =           0.00






         TIME SUMMARY AT END OF TIME STEP    2 IN STRESS PERIOD   18
                    SECONDS     MINUTES      HOURS       DAYS        YEARS
                    -----------------------------------------------------------
   TIME STEP LENGTH 1.29600E+05  2160.0      36.000      1.5000     4.10678E-03
 STRESS PERIOD TIME 2.59200E+05  4320.0      72.000      3.0000     8.21355E-03
         TOTAL TIME 4.40640E+06  73440.      1224.0      51.000     0.13963    
1
1
                            STRESS PERIOD NO.   19, LENGTH =   3.000000    
                            -----------------------------------------------

                              NUMBER OF TIME STEPS =     2

                               MULTIPLIER FOR DELT =     1.000

                            INITIAL TIME STEP SIZE =   1.500000    

 WELL NO.  LAYER   ROW   COL   STRESS RATE         
 --------------------------------------------------
      1      1     28     25      0.1000E-02

      1 WELL 

 REUSING NON-PARAMETER SPECIFIED-HEAD DATA FROM LAST STRESS PERIOD


    100 TIME-VARIANT SPECIFIED-HEAD CELLS
 
 SOLVING FOR HEAD 

 OUTPUT CONTROL FOR STRESS PERIOD   19   TIME STEP    1
    SAVE HEAD FOR ALL LAYERS

 SAVING SATURATED THICKNESS AND FLOW TERMS ON UNIT   54 FOR MT3DMS
 BY THE LINK-MT3DMS PACKAGE V7 AT TIME STEP    1, STRESS PERIOD   19


 HEAD WILL BE SAVED ON UNIT   51 AT END OF TIME STEP    1, STRESS PERIOD   19
 
 SOLVING FOR HEAD 

 OUTPUT CONTROL FOR STRESS PERIOD   19   TIME STEP    2
    SAVE HEAD FOR ALL LAYERS

 SAVING SATURATED THICKNESS AND FLOW TERMS ON UNIT   54 FOR MT3DMS
 BY THE LINK-MT3DMS PACKAGE V7 AT TIME STEP    2, STRESS PERIOD   19


 HEAD WILL BE SAVED ON UNIT   51 AT END OF TIME STEP    2, STRESS PERIOD   19
1
  VOLUMETRIC BUDGET FOR ENTIRE MODEL AT END OF TIME STEP    2, STRESS PERIOD  19
  ------------------------------------------------------------------------------

     CUMULATIVE VOLUMES      L**3       RATES FOR THIS TIME STEP      L**3/T
     ------------------                 ------------------------

           IN:                                      IN:
           ---                                      ---
             STORAGE =       3.5522E-06               STORAGE =       7.1848E-08
       CONSTANT HEAD =       27075.8614         CONSTANT HEAD =         501.4046
               WELLS =       5.4000E-02                 WELLS =       1.0000E-03

            TOTAL IN =       27075.9154              TOTAL IN =         501.4056

          OUT:                                     OUT:
          ----                                     ----
             STORAGE =       3.7034E-06               STORAGE =       2.7578E-09
       CONSTANT HEAD =       27075.8845         CONSTANT HEAD =         501.4053
               WELLS =           0.0000                 WELLS =           0.0000

[...]
               WELLS =           0.0000                 WELLS =           0.0000

           TOTAL OUT =      141396.2722             TOTAL OUT =         501.4052

            IN - OUT =       5.2556E-02              IN - OUT =       1.1209E-05

 PERCENT DISCREPANCY =           0.00     PERCENT DISCREPANCY =           0.00






         TIME SUMMARY AT END OF TIME STEP    2 IN STRESS PERIOD   95
                    SECONDS     MINUTES      HOURS       DAYS        YEARS
                    -----------------------------------------------------------
   TIME STEP LENGTH 1.29600E+05  2160.0      36.000      1.5000     4.10678E-03
 STRESS PERIOD TIME 2.59200E+05  4320.0      72.000      3.0000     8.21355E-03
         TOTAL TIME 2.43648E+07 4.06080E+05  6768.0      282.00     0.77207    
1
1
                            STRESS PERIOD NO.   96, LENGTH =   3.000000    
                            -----------------------------------------------

                              NUMBER OF TIME STEPS =     2

                               MULTIPLIER FOR DELT =     1.000

                            INITIAL TIME STEP SIZE =   1.500000    

 WELL NO.  LAYER   ROW   COL   STRESS RATE         
 --------------------------------------------------
      1      1     28     25      0.1000E-02

      1 WELL 

 REUSING NON-PARAMETER SPECIFIED-HEAD DATA FROM LAST STRESS PERIOD


    100 TIME-VARIANT SPECIFIED-HEAD CELLS
 
 SOLVING FOR HEAD 

 OUTPUT CONTROL FOR STRESS PERIOD   96   TIME STEP    1
    SAVE HEAD FOR ALL LAYERS

 SAVING SATURATED THICKNESS AND FLOW TERMS ON UNIT   54 FOR MT3DMS
 BY THE LINK-MT3DMS PACKAGE V7 AT TIME STEP    1, STRESS PERIOD   96


 HEAD WILL BE SAVED ON UNIT   51 AT END OF TIME STEP    1, STRESS PERIOD   96
 
 SOLVING FOR HEAD 

 OUTPUT CONTROL FOR STRESS PERIOD   96   TIME STEP    2
    SAVE HEAD FOR ALL LAYERS

 SAVING SATURATED THICKNESS AND FLOW TERMS ON UNIT   54 FOR MT3DMS
 BY THE LINK-MT3DMS PACKAGE V7 AT TIME STEP    2, STRESS PERIOD   96


 HEAD WILL BE SAVED ON UNIT   51 AT END OF TIME STEP    2, STRESS PERIOD   96
1
  VOLUMETRIC BUDGET FOR ENTIRE MODEL AT END OF TIME STEP    2, STRESS PERIOD  96
  ------------------------------------------------------------------------------

     CUMULATIVE VOLUMES      L**3       RATES FOR THIS TIME STEP      L**3/T
     ------------------                 ------------------------

           IN:                                      IN:
           ---                                      ---
             STORAGE =       5.6506E-06               STORAGE =       1.6252E-09
       CONSTANT HEAD =      142900.2553         CONSTANT HEAD =         501.4042
               WELLS =           0.2850                 WELLS =       1.0000E-03

            TOTAL IN =      142900.5403              TOTAL IN =         501.4052

          OUT:                                     OUT:
          ----                                     ----
             STORAGE =       5.7971E-06               STORAGE =       5.9893E-11
       CONSTANT HEAD =      142900.4877         CONSTANT HEAD =         501.4052
               WELLS =           0.0000                 WELLS =           0.0000

           TOTAL OUT =      142900.4877             TOTAL OUT =         501.4052

            IN - OUT =       5.2588E-02              IN - OUT =       1.0726E-05

 PERCENT DISCREPANCY =           0.00     PERCENT DISCREPANCY =           0.00






         TIME SUMMARY AT END OF TIME STEP    2 IN STRESS PERIOD   96
                    SECONDS     MINUTES      HOURS       DAYS        YEARS
                    -----------------------------------------------------------
   TIME STEP LENGTH 1.29600E+05  2160.0      36.000      1.5000     4.10678E-03
 STRESS PERIOD TIME 2.59200E+05  4320.0      72.000      3.0000     8.21355E-03
         TOTAL TIME 2.46240E+07 4.10400E+05  6840.0      285.00     0.78029    
1
1
                            STRESS PERIOD NO.   97, LENGTH =   3.000000    
                            -----------------------------------------------

                              NUMBER OF TIME STEPS =     2

                               MULTIPLIER FOR DELT =     1.000

                            INITIAL TIME STEP SIZE =   1.500000    

 WELL NO.  LAYER   ROW   COL   STRESS RATE         
 --------------------------------------------------
      1      1     28     25      0.1000E-02

      1 WELL 

 REUSING NON-PARAMETER SPECIFIED-HEAD DATA FROM LAST STRESS PERIOD


    100 TIME-VARIANT SPECIFIED-HEAD CELLS
 
 SOLVING FOR HEAD 

 OUTPUT CONTROL FOR STRESS PERIOD   97   TIME STEP    1
    SAVE HEAD FOR ALL LAYERS

 SAVING SATURATED THICKNESS AND FLOW TERMS ON UNIT   54 FOR MT3DMS
 BY THE LINK-MT3DMS PACKAGE V7 AT TIME STEP    1, STRESS PERIOD   97


 HEAD WILL BE SAVED ON UNIT   51 AT END OF TIME STEP    1, STRESS PERIOD   97
 
 SOLVING FOR HEAD 

 OUTPUT CONTROL FOR STRESS PERIOD   97   TIME STEP    2
    SAVE HEAD FOR ALL LAYERS

 SAVING SATURATED THICKNESS AND FLOW TERMS ON UNIT   54 FOR MT3DMS
 BY THE LINK-MT3DMS PACKAGE V7 AT TIME STEP    2, STRESS PERIOD   97


 HEAD WILL BE SAVED ON UNIT   51 AT END OF TIME STEP    2, STRESS PERIOD   97
1
  VOLUMETRIC BUDGET FOR ENTIRE MODEL AT END OF TIME STEP    2, STRESS PERIOD  97
  ------------------------------------------------------------------------------

     CUMULATIVE VOLUMES      L**3       RATES FOR THIS TIME STEP      L**3/T
     ------------------                 ------------------------

           IN:                                      IN:
           ---                                      ---
             STORAGE =       5.6531E-06               STORAGE =       1.5505E-09
       CONSTANT HEAD =      144404.4679         CONSTANT HEAD =         501.4042
               WELLS =           0.2880                 WELLS =       1.0000E-03

            TOTAL IN =      144404.7559              TOTAL IN =         501.4052

          OUT:                                     OUT:
          ----                                     ----
             STORAGE =       5.7995E-06               STORAGE =       5.7151E-11
       CONSTANT HEAD =      144404.7032         CONSTANT HEAD =         501.4052
               WELLS =           0.0000                 WELLS =           0.0000

           TOTAL OUT =      144404.7032             TOTAL OUT =         501.4052

            IN - OUT =       5.2619E-02              IN - OUT =       1.0264E-05

 PERCENT DISCREPANCY =           0.00     PERCENT DISCREPANCY =           0.00






         TIME SUMMARY AT END OF TIME STEP    2 IN STRESS PERIOD   97
                    SECONDS     MINUTES      HOURS       DAYS        YEARS
                    -----------------------------------------------------------
   TIME STEP LENGTH 1.29600E+05  2160.0      36.000      1.5000     4.10678E-03
 STRESS PERIOD TIME 2.59200E+05  4320.0      72.000      3.0000     8.21355E-03
         TOTAL TIME 2.48832E+07 4.14720E+05  6912.0      288.00     0.78850    
1
1
                            STRESS PERIOD NO.   98, LENGTH =   3.000000    
                            -----------------------------------------------

                              NUMBER OF TIME STEPS =     2

                               MULTIPLIER FOR DELT =     1.000

                            INITIAL TIME STEP SIZE =   1.500000    

 WELL NO.  LAYER   ROW   COL   STRESS RATE         
 --------------------------------------------------
      1      1     28     25      0.1000E-02

      1 WELL 

 REUSING NON-PARAMETER SPECIFIED-HEAD DATA FROM LAST STRESS PERIOD


    100 TIME-VARIANT SPECIFIED-HEAD CELLS
 
 SOLVING FOR HEAD 

 OUTPUT CONTROL FOR STRESS PERIOD   98   TIME STEP    1
    SAVE HEAD FOR ALL LAYERS

 SAVING SATURATED THICKNESS AND FLOW TERMS ON UNIT   54 FOR MT3DMS
 BY THE LINK-MT3DMS PACKAGE V7 AT TIME STEP    1, STRESS PERIOD   98


 HEAD WILL BE SAVED ON UNIT   51 AT END OF TIME STEP    1, STRESS PERIOD   98
 
 SOLVING FOR HEAD 

 OUTPUT CONTROL FOR STRESS PERIOD   98   TIME STEP    2
    SAVE HEAD FOR ALL LAYERS

 SAVING SATURATED THICKNESS AND FLOW TERMS ON UNIT   54 FOR MT3DMS
 BY THE LINK-MT3DMS PACKAGE V7 AT TIME STEP    2, STRESS PERIOD   98


 HEAD WILL BE SAVED ON UNIT   51 AT END OF TIME STEP    2, STRESS PERIOD   98
1
  VOLUMETRIC BUDGET FOR ENTIRE MODEL AT END OF TIME STEP    2, STRESS PERIOD  98
  ------------------------------------------------------------------------------

     CUMULATIVE VOLUMES      L**3       RATES FOR THIS TIME STEP      L**3/T
     ------------------                 ------------------------

           IN:                                      IN:
           ---                                      ---
             STORAGE =       5.6554E-06               STORAGE =       1.4794E-09
       CONSTANT HEAD =      145908.6804         CONSTANT HEAD =         501.4042
               WELLS =           0.2910                 WELLS =       1.0000E-03

            TOTAL IN =      145908.9714              TOTAL IN =         501.4052

          OUT:                                     OUT:
          ----                                     ----
             STORAGE =       5.8018E-06               STORAGE =       5.4535E-11
       CONSTANT HEAD =      145908.9188         CONSTANT HEAD =         501.4052
               WELLS =           0.0000                 WELLS =           0.0000

           TOTAL OUT =      145908.9188             TOTAL OUT =         501.4052

            IN - OUT =       5.2649E-02              IN - OUT =       9.8222E-06

 PERCENT DISCREPANCY =           0.00     PERCENT DISCREPANCY =           0.00






         TIME SUMMARY AT END OF TIME STEP    2 IN STRESS PERIOD   98
                    SECONDS     MINUTES      HOURS       DAYS        YEARS
                    -----------------------------------------------------------
   TIME STEP LENGTH 1.29600E+05  2160.0      36.000      1.5000     4.10678E-03
 STRESS PERIOD TIME 2.59200E+05  4320.0      72.000      3.0000     8.21355E-03
         TOTAL TIME 2.51424E+07 4.19040E+05  6984.0      291.00     0.79671    
1
1
                            STRESS PERIOD NO.   99, LENGTH =   3.000000    
                            -----------------------------------------------

                              NUMBER OF TIME STEPS =     2

                               MULTIPLIER FOR DELT =     1.000

                            INITIAL TIME STEP SIZE =   1.500000    

 WELL NO.  LAYER   ROW   COL   STRESS RATE         
 --------------------------------------------------
      1      1     28     25      0.1000E-02

      1 WELL 

 REUSING NON-PARAMETER SPECIFIED-HEAD DATA FROM LAST STRESS PERIOD


    100 TIME-VARIANT SPECIFIED-HEAD CELLS
 
 SOLVING FOR HEAD 

 OUTPUT CONTROL FOR STRESS PERIOD   99   TIME STEP    1
    SAVE HEAD FOR ALL LAYERS

 SAVING SATURATED THICKNESS AND FLOW TERMS ON UNIT   54 FOR MT3DMS
 BY THE LINK-MT3DMS PACKAGE V7 AT TIME STEP    1, STRESS PERIOD   99


 HEAD WILL BE SAVED ON UNIT   51 AT END OF TIME STEP    1, STRESS PERIOD   99
 
 SOLVING FOR HEAD 

 OUTPUT CONTROL FOR STRESS PERIOD   99   TIME STEP    2
    SAVE HEAD FOR ALL LAYERS

 SAVING SATURATED THICKNESS AND FLOW TERMS ON UNIT   54 FOR MT3DMS
 BY THE LINK-MT3DMS PACKAGE V7 AT TIME STEP    2, STRESS PERIOD   99


 HEAD WILL BE SAVED ON UNIT   51 AT END OF TIME STEP    2, STRESS PERIOD   99
1
  VOLUMETRIC BUDGET FOR ENTIRE MODEL AT END OF TIME STEP    2, STRESS PERIOD  99
  ------------------------------------------------------------------------------

     CUMULATIVE VOLUMES      L**3       RATES FOR THIS TIME STEP      L**3/T
     ------------------                 ------------------------

           IN:                                      IN:
           ---                                      ---
             STORAGE =       5.6576E-06               STORAGE =       1.4115E-09
       CONSTANT HEAD =      147412.8930         CONSTANT HEAD =         501.4042
               WELLS =           0.2940                 WELLS =       1.0000E-03

            TOTAL IN =      147413.1870              TOTAL IN =         501.4052

          OUT:                                     OUT:
          ----                                     ----
             STORAGE =       5.8041E-06               STORAGE =       5.2040E-11
       CONSTANT HEAD =      147413.1343         CONSTANT HEAD =         501.4052
               WELLS =           0.0000                 WELLS =           0.0000

           TOTAL OUT =      147413.1343             TOTAL OUT =         501.4052

            IN - OUT =       5.2678E-02              IN - OUT =       9.3993E-06

 PERCENT DISCREPANCY =           0.00     PERCENT DISCREPANCY =           0.00






         TIME SUMMARY AT END OF TIME STEP    2 IN STRESS PERIOD   99
                    SECONDS     MINUTES      HOURS       DAYS        YEARS
                    -----------------------------------------------------------
   TIME STEP LENGTH 1.29600E+05  2160.0      36.000      1.5000     4.10678E-03
 STRESS PERIOD TIME 2.59200E+05  4320.0      72.000      3.0000     8.21355E-03
         TOTAL TIME 2.54016E+07 4.23360E+05  7056.0      294.00     0.80493    
1
1
                            STRESS PERIOD NO.  100, LENGTH =   3.000000    
                            -----------------------------------------------

                              NUMBER OF TIME STEPS =     2

                               MULTIPLIER FOR DELT =     1.000

                            INITIAL TIME STEP SIZE =   1.500000    

 WELL NO.  LAYER   ROW   COL   STRESS RATE         
 --------------------------------------------------
      1      1     28     25      0.1000E-02

      1 WELL 

 REUSING NON-PARAMETER SPECIFIED-HEAD DATA FROM LAST STRESS PERIOD


    100 TIME-VARIANT SPECIFIED-HEAD CELLS
 
 SOLVING FOR HEAD 

 OUTPUT CONTROL FOR STRESS PERIOD  100   TIME STEP    1
    SAVE HEAD FOR ALL LAYERS

 SAVING SATURATED THICKNESS AND FLOW TERMS ON UNIT   54 FOR MT3DMS
 BY THE LINK-MT3DMS PACKAGE V7 AT TIME STEP    1, STRESS PERIOD  100


 HEAD WILL BE SAVED ON UNIT   51 AT END OF TIME STEP    1, STRESS PERIOD  100
 
 SOLVING FOR HEAD 

 OUTPUT CONTROL FOR STRESS PERIOD  100   TIME STEP    2
    SAVE HEAD FOR ALL LAYERS

 SAVING SATURATED THICKNESS AND FLOW TERMS ON UNIT   54 FOR MT3DMS
 BY THE LINK-MT3DMS PACKAGE V7 AT TIME STEP    2, STRESS PERIOD  100


 HEAD WILL BE SAVED ON UNIT   51 AT END OF TIME STEP    2, STRESS PERIOD  100
1
  VOLUMETRIC BUDGET FOR ENTIRE MODEL AT END OF TIME STEP    2, STRESS PERIOD 100
  ------------------------------------------------------------------------------

     CUMULATIVE VOLUMES      L**3       RATES FOR THIS TIME STEP      L**3/T
     ------------------                 ------------------------

           IN:                                      IN:
           ---                                      ---
             STORAGE =       5.6598E-06               STORAGE =       1.3468E-09
       CONSTANT HEAD =      148917.1056         CONSTANT HEAD =         501.4042
               WELLS =           0.2970                 WELLS =       1.0000E-03

            TOTAL IN =      148917.4026              TOTAL IN =         501.4052

          OUT:                                     OUT:
          ----                                     ----
             STORAGE =       5.8062E-06               STORAGE =       4.9660E-11
       CONSTANT HEAD =      148917.3499         CONSTANT HEAD =         501.4052
               WELLS =           0.0000                 WELLS =           0.0000

           TOTAL OUT =      148917.3499             TOTAL OUT =         501.4052

            IN - OUT =       5.2705E-02              IN - OUT =       8.9945E-06

 PERCENT DISCREPANCY =           0.00     PERCENT DISCREPANCY =           0.00






         TIME SUMMARY AT END OF TIME STEP    2 IN STRESS PERIOD  100
                    SECONDS     MINUTES      HOURS       DAYS        YEARS
                    -----------------------------------------------------------
   TIME STEP LENGTH 1.29600E+05  2160.0      36.000      1.5000     4.10678E-03
 STRESS PERIOD TIME 2.59200E+05  4320.0      72.000      3.0000     8.21355E-03
         TOTAL TIME 2.56608E+07 4.27680E+05  7128.0      297.00     0.81314    
1
1
                            STRESS PERIOD NO.  101, LENGTH =   3.000000    
                            -----------------------------------------------

                              NUMBER OF TIME STEPS =     2

                               MULTIPLIER FOR DELT =     1.000

                            INITIAL TIME STEP SIZE =   1.500000    

 WELL NO.  LAYER   ROW   COL   STRESS RATE         
 --------------------------------------------------
      1      1     28     25      0.1000E-02

      1 WELL 

 REUSING NON-PARAMETER SPECIFIED-HEAD DATA FROM LAST STRESS PERIOD


    100 TIME-VARIANT SPECIFIED-HEAD CELLS
 
 SOLVING FOR HEAD 

 OUTPUT CONTROL FOR STRESS PERIOD  101   TIME STEP    1
    SAVE HEAD FOR ALL LAYERS

 SAVING SATURATED THICKNESS AND FLOW TERMS ON UNIT   54 FOR MT3DMS
 BY THE LINK-MT3DMS PACKAGE V7 AT TIME STEP    1, STRESS PERIOD  101


 HEAD WILL BE SAVED ON UNIT   51 AT END OF TIME STEP    1, STRESS PERIOD  101
 
 SOLVING FOR HEAD 

 OUTPUT CONTROL FOR STRESS PERIOD  101   TIME STEP    2
    SAVE HEAD FOR ALL LAYERS

 SAVING SATURATED THICKNESS AND FLOW TERMS ON UNIT   54 FOR MT3DMS
 BY THE LINK-MT3DMS PACKAGE V7 AT TIME STEP    2, STRESS PERIOD  101


 HEAD WILL BE SAVED ON UNIT   51 AT END OF TIME STEP    2, STRESS PERIOD  101
1
  VOLUMETRIC BUDGET FOR ENTIRE MODEL AT END OF TIME STEP    2, STRESS PERIOD 101
  ------------------------------------------------------------------------------

     CUMULATIVE VOLUMES      L**3       RATES FOR THIS TIME STEP      L**3/T
     ------------------                 ------------------------

           IN:                                      IN:
           ---                                      ---
             STORAGE =       5.6618E-06               STORAGE =       1.2850E-09
       CONSTANT HEAD =      150421.3181         CONSTANT HEAD =         501.4042
               WELLS =           0.3000                 WELLS =       1.0000E-03

            TOTAL IN =      150421.6181              TOTAL IN =         501.4052

          OUT:                                     OUT:
          ----                                     ----
             STORAGE =       5.8082E-06               STORAGE =       4.7390E-11
       CONSTANT HEAD =      150421.5654         CONSTANT HEAD =         501.4052
               WELLS =           0.0000                 WELLS =           0.0000

           TOTAL OUT =      150421.5654             TOTAL OUT =         501.4052

            IN - OUT =       5.2731E-02              IN - OUT =       8.6073E-06

 PERCENT DISCREPANCY =           0.00     PERCENT DISCREPANCY =           0.00






         TIME SUMMARY AT END OF TIME STEP    2 IN STRESS PERIOD  101
                    SECONDS     MINUTES      HOURS       DAYS        YEARS
                    -----------------------------------------------------------
   TIME STEP LENGTH 1.29600E+05  2160.0      36.000      1.5000     4.10678E-03
 STRESS PERIOD TIME 2.59200E+05  4320.0      72.000      3.0000     8.21355E-03
         TOTAL TIME 2.59200E+07 4.32000E+05  7200.0      300.00     0.82136    
1

 Run end date and time (yyyy/mm/dd hh:mm:ss): 2025/04/22 20:07:43
 Elapsed run time:  0.263 Seconds

